# Output control file for MODFLOW-2000, UNC1NLI1 Report Example
HEAD SAVE FORMAT (1G11.6)
HEAD SAVE UNIT 38

PERIOD 1 STEP 1
SAVE HEAD
