# WELL file for MODFLOW-2000, UNC1NLI1 Report Example
#
PARAMETER 1  1 
 1  00
WEL_0_1 Q  1 1 
         1        31        46          -1
 0  1 
WEL_0_1
