# MODFLOW2000 Constant-Head Boundary Package (CHD)
      5694
      5694         0
         1       535       265  1040.000  1040.000
         1       536       266  1040.000  1040.000
         1       537       266  1040.000  1040.000
         1       538       267  1040.000  1040.000
         1       539       267  1040.000  1040.000
         1       540       268  1040.000  1040.000
         1       541       268  1040.000  1040.000
         1       542       268  1040.000  1040.000
         1       543       268  1040.000  1040.000
         1       544       268  1040.000  1040.000
         1       545       268  1040.000  1040.000
         1       546       268  1040.000  1040.000
         1       547       269  1040.000  1040.000
         1       548       269  1040.000  1040.000
         1       549       269  1040.000  1040.000
         1       550       269  1040.000  1040.000
         1       551       268  1040.000  1040.000
         1       552       268  1040.000  1040.000
         1       553       267  1040.000  1040.000
         1       554       267  1040.000  1040.000
         1       555       266  1040.000  1040.000
         1       556       266  1040.000  1040.000
         1       557       265  1040.000  1040.000
         1       558       265  1040.000  1040.000
         1       559       265  1040.000  1040.000
         1       560       265  1040.000  1040.000
         1       561       265  1040.000  1040.000
         1       562       265  1040.000  1040.000
         1       563       265  1040.000  1040.000
         1       564       265  1040.000  1040.000
         1       565       266  1040.000  1040.000
         1       566       266  1040.000  1040.000
         1       567       267  1040.000  1040.000
         1       568       267  1040.000  1040.000
         1       569       268  1040.000  1040.000
         1       570       268  1040.000  1040.000
         1       571       269  1040.000  1040.000
         1       572       269  1040.000  1040.000
         1       573       270  1040.000  1040.000
         1       574       271  1040.000  1040.000
         1       575       271  1040.000  1040.000
         1       576       271  1040.000  1040.000
         1       577       272  1040.000  1040.000
         1       578       272  1040.000  1040.000
         1       579       272  1040.000  1040.000
         1       580       272  1040.000  1040.000
         1       581       272  1040.000  1040.000
         1       582       272  1040.000  1040.000
         1       583       272  1040.000  1040.000
         1       584       218  1040.000  1040.000
         1       584       219  1040.000  1040.000
         1       584       220  1040.000  1040.000
         1       584       221  1040.000  1040.000
         1       584       222  1040.000  1040.000
         1       584       223  1040.000  1040.000
         1       584       224  1040.000  1040.000
         1       584       225  1040.000  1040.000
         1       584       226  1040.000  1040.000
         1       584       272  1040.000  1040.000
         1       585       215  1040.000  1040.000
         1       585       216  1040.000  1040.000
         1       585       217  1040.000  1040.000
         1       585       227  1040.000  1040.000
         1       585       272  1040.000  1040.000
         1       586       213  1040.000  1040.000
         1       586       214  1040.000  1040.000
         1       586       228  1040.000  1040.000
         1       586       272  1040.000  1040.000
         1       587       212  1040.000  1040.000
         1       587       229  1040.000  1040.000
         1       587       271  1040.000  1040.000
         1       588       209  1040.000  1040.000
         1       588       210  1040.000  1040.000
         1       588       211  1040.000  1040.000
         1       588       229  1040.000  1040.000
         1       588       271  1040.000  1040.000
         1       589       142  1040.000  1040.000
         1       589       143  1040.000  1040.000
         1       589       144  1040.000  1040.000
         1       589       145  1040.000  1040.000
         1       589       146  1040.000  1040.000
         1       589       147  1040.000  1040.000
         1       589       148  1040.000  1040.000
         1       589       149  1040.000  1040.000
         1       589       208  1040.000  1040.000
         1       589       230  1040.000  1040.000
         1       589       271  1040.000  1040.000
         1       590       139  1040.000  1040.000
         1       590       140  1040.000  1040.000
         1       590       141  1040.000  1040.000
         1       590       150  1040.000  1040.000
         1       590       151  1040.000  1040.000
         1       590       152  1040.000  1040.000
         1       590       153  1040.000  1040.000
         1       590       154  1040.000  1040.000
         1       590       155  1040.000  1040.000
         1       590       156  1040.000  1040.000
         1       590       157  1040.000  1040.000
         1       590       206  1040.000  1040.000
         1       590       207  1040.000  1040.000
         1       590       231  1040.000  1040.000
         1       590       270  1040.000  1040.000
         1       591       136  1040.000  1040.000
         1       591       137  1040.000  1040.000
         1       591       138  1040.000  1040.000
         1       591       158  1040.000  1040.000
         1       591       159  1040.000  1040.000
         1       591       160  1040.000  1040.000
         1       591       161  1040.000  1040.000
         1       591       203  1040.000  1040.000
         1       591       204  1040.000  1040.000
         1       591       205  1040.000  1040.000
         1       591       231  1040.000  1040.000
         1       591       270  1040.000  1040.000
         1       592       134  1040.000  1040.000
         1       592       135  1040.000  1040.000
         1       592       162  1040.000  1040.000
         1       592       163  1040.000  1040.000
         1       592       164  1040.000  1040.000
         1       592       165  1040.000  1040.000
         1       592       166  1040.000  1040.000
         1       592       167  1040.000  1040.000
         1       592       168  1040.000  1040.000
         1       592       169  1040.000  1040.000
         1       592       170  1040.000  1040.000
         1       592       171  1040.000  1040.000
         1       592       172  1040.000  1040.000
         1       592       173  1040.000  1040.000
         1       592       174  1040.000  1040.000
         1       592       175  1040.000  1040.000
         1       592       176  1040.000  1040.000
         1       592       177  1040.000  1040.000
         1       592       178  1040.000  1040.000
         1       592       179  1040.000  1040.000
         1       592       180  1040.000  1040.000
         1       592       181  1040.000  1040.000
         1       592       182  1040.000  1040.000
         1       592       183  1040.000  1040.000
         1       592       199  1040.000  1040.000
         1       592       200  1040.000  1040.000
         1       592       201  1040.000  1040.000
         1       592       202  1040.000  1040.000
         1       592       232  1040.000  1040.000
         1       592       270  1040.000  1040.000
         1       593       133  1040.000  1040.000
         1       593       184  1040.000  1040.000
         1       593       185  1041.000  1041.000
         1       593       186  1040.800  1040.800
         1       593       187  1040.000  1040.000
         1       593       188  1040.000  1040.000
         1       593       189  1040.000  1040.000
         1       593       190  1040.000  1040.000
         1       593       191  1040.000  1040.000
         1       593       192  1040.000  1040.000
         1       593       193  1040.000  1040.000
         1       593       194  1040.000  1040.000
         1       593       195  1040.000  1040.000
         1       593       196  1040.000  1040.000
         1       593       197  1040.000  1040.000
         1       593       198  1040.000  1040.000
         1       593       233  1040.000  1040.000
         1       593       269  1040.000  1040.000
         1       594       132  1040.000  1040.000
         1       594       234  1040.000  1040.000
         1       594       268  1040.000  1040.000
         1       595       131  1040.000  1040.000
         1       595       235  1040.000  1040.000
         1       595       268  1040.000  1040.000
         1       596       130  1040.000  1040.000
         1       596       236  1040.000  1040.000
         1       596       267  1040.000  1040.000
         1       597       129  1040.000  1040.000
         1       597       237  1040.000  1040.000
         1       597       238  1040.000  1040.000
         1       597       239  1040.000  1040.000
         1       597       266  1040.000  1040.000
         1       598       128  1040.000  1040.000
         1       598       240  1040.000  1040.000
         1       598       241  1040.000  1040.000
         1       598       265  1040.000  1040.000
         1       599       127  1040.000  1040.000
         1       599       242  1040.000  1040.000
         1       599       243  1040.000  1040.000
         1       599       264  1040.000  1040.000
         1       600       127  1040.000  1040.000
         1       600       244  1040.000  1040.000
         1       600       262  1040.000  1040.000
         1       600       263  1040.000  1040.000
         1       601       126  1040.000  1040.000
         1       601       245  1040.000  1040.000
         1       601       246  1040.000  1040.000
         1       601       259  1040.000  1040.000
         1       601       260  1040.000  1040.000
         1       601       261  1040.000  1040.000
         1       602       126  1040.000  1040.000
         1       602       247  1040.000  1040.000
         1       602       248  1040.000  1040.000
         1       602       249  1040.000  1040.000
         1       602       253  1040.000  1040.000
         1       602       254  1040.000  1040.000
         1       602       255  1040.000  1040.000
         1       602       256  1040.000  1040.000
         1       602       257  1040.000  1040.000
         1       602       258  1040.000  1040.000
         1       603       126  1040.000  1040.000
         1       603       250  1040.000  1040.000
         1       603       251  1040.000  1040.000
         1       603       252  1040.000  1040.000
         1       604       126  1040.000  1040.000
         1       605       125  1040.000  1040.000
         1       606       125  1040.000  1040.000
         1       607       125  1040.000  1040.000
         1       608       125  1040.000  1040.000
         1       609       124  1040.000  1040.000
         1       610       124  1040.000  1040.000
         1       611       123  1040.000  1040.000
         1       612       123  1040.000  1040.000
         1       613       123  1040.000  1040.000
         1       614       122  1040.000  1040.000
         1       615       122  1040.000  1040.000
         1       616       122  1040.000  1040.000
         1       617       123  1040.000  1040.000
         1       618       124  1040.000  1040.000
         1       619       124  1040.000  1040.000
         1       620       123  1040.000  1040.000
         1       621       120  1040.000  1040.000
         1       621       121  1040.000  1040.000
         1       621       122  1040.000  1040.000
         1       622       112  1040.000  1040.000
         1       622       113  1040.000  1040.000
         1       622       114  1040.000  1040.000
         1       622       115  1040.000  1040.000
         1       622       116  1040.000  1040.000
         1       622       117  1040.000  1040.000
         1       622       118  1040.000  1040.000
         1       622       119  1040.000  1040.000
         1       623       110  1040.000  1040.000
         1       623       111  1040.000  1040.000
         1       624       109  1040.000  1040.000
         1       625       108  1040.000  1040.000
         1       626       107  1040.000  1040.000
         1       627       105  1040.000  1040.000
         1       627       106  1040.000  1040.000
         1       628       104  1040.000  1040.000
         1       629       103  1040.000  1040.000
         1       630       101  1040.000  1040.000
         1       630       102  1040.000  1040.000
         1       631       100  1040.000  1040.000
         1       632        99  1040.000  1040.000
         1       633        67  1040.000  1040.000
         1       633        68  1040.000  1040.000
         1       633        69  1040.000  1040.000
         1       633        70  1040.000  1040.000
         1       633        97  1040.000  1040.000
         1       633        98  1040.000  1040.000
         1       634        66  1040.000  1040.000
         1       634        71  1040.000  1040.000
         1       634        95  1040.000  1040.000
         1       634        96  1040.000  1040.000
         1       635        63  1040.000  1040.000
         1       635        64  1040.000  1040.000
         1       635        65  1040.000  1040.000
         1       635        72  1040.000  1040.000
         1       635        73  1040.000  1040.000
         1       635        94  1040.000  1040.000
         1       636        45  1040.000  1040.000
         1       636        46  1040.000  1040.000
         1       636        47  1040.000  1040.000
         1       636        48  1040.000  1040.000
         1       636        49  1040.000  1040.000
         1       636        61  1040.000  1040.000
         1       636        62  1040.000  1040.000
         1       636        74  1040.000  1040.000
         1       636        93  1040.000  1040.000
         1       637        44  1040.000  1040.000
         1       637        50  1040.000  1040.000
         1       637        51  1040.000  1040.000
         1       637        59  1040.000  1040.000
         1       637        60  1040.000  1040.000
         1       637        75  1040.000  1040.000
         1       637        76  1040.000  1040.000
         1       637        85  1040.000  1040.000
         1       637        86  1040.000  1040.000
         1       637        87  1040.000  1040.000
         1       637        88  1040.000  1040.000
         1       637        89  1040.000  1040.000
         1       637        90  1040.000  1040.000
         1       637        92  1040.000  1040.000
         1       638        42  1040.000  1040.000
         1       638        43  1040.000  1040.000
         1       638        52  1040.000  1040.000
         1       638        58  1040.000  1040.000
         1       638        76  1040.000  1040.000
         1       638        77  1040.000  1040.000
         1       638        78  1040.000  1040.000
         1       638        79  1040.000  1040.000
         1       638        80  1040.000  1040.000
         1       638        81  1040.000  1040.000
         1       638        82  1040.000  1040.000
         1       638        83  1040.000  1040.000
         1       638        84  1040.000  1040.000
         1       638        91  1040.000  1040.000
         1       639        40  1040.000  1040.000
         1       639        41  1040.000  1040.000
         1       639        53  1040.000  1040.000
         1       639        58  1040.000  1040.000
         1       640        39  1040.000  1040.000
         1       640        53  1040.000  1040.000
         1       640        57  1040.000  1040.000
         1       641        38  1040.000  1040.000
         1       641        53  1040.000  1040.000
         1       641        57  1040.000  1040.000
         1       642        37  1040.000  1040.000
         1       642        53  1040.000  1040.000
         1       642        56  1040.000  1040.000
         1       643        36  1040.000  1040.000
         1       643        52  1040.000  1040.000
         1       643        56  1040.000  1040.000
         1       644        34  1040.000  1040.000
         1       644        35  1040.000  1040.000
         1       644        50  1040.000  1040.000
         1       644        51  1040.000  1040.000
         1       644        55  1040.000  1040.000
         1       645        20  1040.000  1040.000
         1       645        21  1040.000  1040.000
         1       645        22  1040.000  1040.000
         1       645        23  1040.000  1040.000
         1       645        24  1040.000  1040.000
         1       645        25  1040.000  1040.000
         1       645        26  1040.000  1040.000
         1       645        31  1040.000  1040.000
         1       645        32  1040.000  1040.000
         1       645        33  1040.000  1040.000
         1       645        45  1040.000  1040.000
         1       645        46  1040.000  1040.000
         1       645        47  1040.000  1040.000
         1       645        48  1040.000  1040.000
         1       645        49  1040.000  1040.000
         1       645        54  1040.000  1040.000
         1       646        16  1040.000  1040.000
         1       646        17  1040.000  1040.000
         1       646        18  1040.000  1040.000
         1       646        19  1040.000  1040.000
         1       646        27  1040.000  1040.000
         1       646        28  1040.000  1040.000
         1       646        30  1040.000  1040.000
         1       646        44  1040.000  1040.000
         1       646        53  1040.000  1040.000
         1       647        12  1040.000  1040.000
         1       647        13  1040.000  1040.000
         1       647        14  1040.000  1040.000
         1       647        15  1040.000  1040.000
         1       647        16  1040.000  1040.000
         1       647        29  1040.000  1040.000
         1       647        43  1040.000  1040.000
         1       647        52  1040.000  1040.000
         1       648         8  1040.000  1040.000
         1       648         9  1040.000  1040.000
         1       648        10  1040.000  1040.000
         1       648        11  1040.000  1040.000
         1       648        42  1040.000  1040.000
         1       648        52  1040.000  1040.000
         1       649         2  1040.000  1040.000
         1       649         3  1040.000  1040.000
         1       649         4  1040.000  1040.000
         1       649         5  1040.000  1040.000
         1       649         6  1040.000  1040.000
         1       649         7  1040.000  1040.000
         1       649        41  1040.000  1040.000
         1       649        52  1040.000  1040.000
         1       650         1  1040.000  1040.000
         1       650        41  1040.000  1040.000
         1       650        51  1040.000  1040.000
         1       650        52  1040.000  1040.000
         1       651        40  1040.000  1040.000
         1       651        46  1040.000  1040.000
         1       651        47  1040.000  1040.000
         1       651        48  1040.000  1040.000
         1       651        49  1040.000  1040.000
         1       651        50  1040.000  1040.000
         1       652        40  1040.000  1040.000
         1       652        45  1040.000  1040.000
         1       653        40  1040.000  1040.000
         1       653        45  1040.000  1040.000
         1       654        40  1040.000  1040.000
         1       654        45  1040.000  1040.000
         1       655        40  1040.000  1040.000
         1       655        44  1040.000  1040.000
         1       656        40  1040.000  1040.000
         1       656        44  1040.000  1040.000
         1       657        40  1040.000  1040.000
         1       657        44  1040.000  1040.000
         1       658        41  1040.000  1040.000
         1       658        44  1040.000  1040.000
         1       659        41  1040.000  1040.000
         1       659        45  1040.000  1040.000
         1       660        41  1040.000  1040.000
         1       660        45  1040.000  1040.000
         1       661        41  1040.000  1040.000
         1       661        45  1040.000  1040.000
         1       662        41  1040.000  1040.000
         1       662        45  1040.000  1040.000
         1       663        42  1040.000  1040.000
         1       663        46  1040.000  1040.000
         1       664        43  1040.000  1040.000
         1       664        46  1040.000  1040.000
         1       665        43  1040.000  1040.000
         1       665        46  1040.000  1040.000
         1       666        44  1040.000  1040.000
         1       666        47  1040.000  1040.000
         1       667        44  1040.000  1040.000
         1       667        47  1040.000  1040.000
         1       667        48  1040.000  1040.000
         1       668        44  1040.000  1040.000
         1       668        49  1040.000  1040.000
         1       669        45  1040.000  1040.000
         1       669        50  1040.000  1040.000
         1       669        51  1040.000  1040.000
         1       670        46  1040.000  1040.000
         1       670        52  1040.000  1040.000
         1       670        53  1040.000  1040.000
         1       670        54  1040.000  1040.000
         1       671        47  1040.000  1040.000
         1       671        55  1040.000  1040.000
         1       671        56  1040.000  1040.000
         1       672        48  1040.000  1040.000
         1       672        57  1040.000  1040.000
         1       672        58  1040.000  1040.000
         1       673        49  1040.000  1040.000
         1       673        50  1040.000  1040.000
         1       673        59  1040.000  1040.000
         1       673        60  1040.000  1040.000
         1       673        61  1040.000  1040.000
         1       674        51  1040.000  1040.000
         1       674        52  1040.000  1040.000
         1       674        62  1040.000  1040.000
         1       674        63  1040.000  1040.000
         1       674        64  1040.000  1040.000
         1       674        65  1040.000  1040.000
         1       675        53  1040.000  1040.000
         1       675        54  1040.000  1040.000
         1       675        55  1040.000  1040.000
         1       675        65  1040.000  1040.000
         1       676        56  1040.000  1040.000
         1       676        57  1040.000  1040.000
         1       676        58  1040.000  1040.000
         1       676        59  1040.000  1040.000
         1       676        60  1040.000  1040.000
         1       676        61  1040.000  1040.000
         1       676        62  1040.000  1040.000
         1       676        63  1040.000  1040.000
         1       676        64  1040.000  1040.000
         1       676        65  1040.000  1040.000
         1         7       664  1173.000  1173.000
         1         7       665  1172.500  1172.500
         1         7       666  1172.200  1172.200
         1         7       667  1172.000  1172.000
         1         7       668  1171.700  1171.700
         1         8       660  1176.600  1176.600
         1         8       661  1176.500  1176.500
         1         8       662  1175.800  1175.800
         1         8       663  1174.800  1174.800
         1         8       669  1170.500  1170.500
         1         8       670  1170.500  1170.500
         1         8       671  1169.900  1169.900
         1         8       672  1169.300  1169.300
         1         8       673  1168.900  1168.900
         1         9       658  1177.900  1177.900
         1         9       659  1177.700  1177.700
         1         9       660  1178.100  1178.100
         1         9       673  1168.500  1168.500
         1         9       674  1168.100  1168.100
         1        10       675  1168.000  1168.000
         1        10       676  1168.000  1168.000
         1        11       676  1167.300  1167.300
         1        11       677  1167.200  1167.200
         1        12       677  1167.000  1167.000
         1        12       678  1166.400  1166.400
         1        12       693  1160.800  1160.800
         1        12       694  1160.500  1160.500
         1        12       695  1160.300  1160.300
         1        12       696  1160.200  1160.200
         1        12       697  1160.200  1160.200
         1        13       678  1166.600  1166.600
         1        13       679  1165.900  1165.900
         1        13       680  1165.600  1165.600
         1        13       692  1160.900  1160.900
         1        13       697  1160.000  1160.000
         1        13       698  1159.800  1159.800
         1        13       699  1159.800  1159.800
         1        13       700  1159.800  1159.800
         1        13       701  1159.800  1159.800
         1        14       680  1165.600  1165.600
         1        14       681  1165.200  1165.200
         1        14       691  1161.400  1161.400
         1        14       692  1161.100  1161.100
         1        14       701  1159.800  1159.800
         1        14       702  1159.700  1159.700
         1        14       703  1159.500  1159.500
         1        14       704  1159.500  1159.500
         1        14       705  1159.500  1159.500
         1        15       681  1165.000  1165.000
         1        15       682  1164.700  1164.700
         1        15       683  1164.600  1164.600
         1        15       686  1163.400  1163.400
         1        15       687  1162.900  1162.900
         1        15       688  1162.500  1162.500
         1        15       689  1162.200  1162.200
         1        15       690  1161.800  1161.800
         1        15       691  1161.500  1161.500
         1        15       705  1159.600  1159.600
         1        15       706  1159.500  1159.500
         1        15       707  1159.500  1159.500
         1        15       715  1156.600  1156.600
         1        15       716  1156.600  1156.600
         1        15       717  1156.600  1156.600
         1        15       718  1156.600  1156.600
         1        15       719  1156.600  1156.600
         1        15       720  1156.500  1156.500
         1        15       721  1156.500  1156.500
         1        15       722  1156.500  1156.500
         1        15       723  1156.500  1156.500
         1        16       683  1164.300  1164.300
         1        16       684  1164.000  1164.000
         1        16       685  1163.600  1163.600
         1        16       686  1163.300  1163.300
         1        16       707  1159.500  1159.500
         1        16       708  1159.400  1159.400
         1        16       709  1159.400  1159.400
         1        16       710  1159.100  1159.100
         1        16       711  1158.900  1158.900
         1        16       712  1158.300  1158.300
         1        16       713  1157.600  1157.600
         1        16       714  1157.100  1157.100
         1        16       715  1156.700  1156.700
         1        16       724  1156.400  1156.400
         1        17       724  1155.700  1155.700
         1        18       725  1155.100  1155.100
         1        19       726  1155.300  1155.300
         1        20       727  1155.300  1155.300
         1        20       728  1155.200  1155.200
         1        21       729  1155.200  1155.200
         1        22       730  1155.200  1155.200
         1        22       731  1155.200  1155.200
         1        23       732  1155.200  1155.200
         1        23       733  1155.200  1155.200
         1        24       734  1155.000  1155.000
         1        25       734  1155.000  1155.000
         1        26       734  1155.000  1155.000
         1        27       734  1155.000  1155.000
         1        28       735  1155.000  1155.000
         1        29       736  1152.400  1152.400
         1        30       736  1152.000  1152.000
         1        30       737  1150.600  1150.600
         1        31       738  1150.100  1150.100
         1        32       739  1149.800  1149.800
         1        33       739  1149.800  1149.800
         1        33       740  1149.800  1149.800
         1        33       741  1149.800  1149.800
         1        33       742  1149.800  1149.800
         1        33       743  1149.700  1149.700
         1        33       744  1149.700  1149.700
         1        33       745  1149.700  1149.700
         1        33       746  1149.700  1149.700
         1        34       747  1149.700  1149.700
         1        34       748  1149.700  1149.700
         1        34       749  1149.700  1149.700
         1        34       750  1149.700  1149.700
         1        34       751  1149.700  1149.700
         1        34       752  1149.700  1149.700
         1        34       753  1149.700  1149.700
         1        34       754  1149.700  1149.700
         1        34       755  1149.700  1149.700
         1        35       756  1149.700  1149.700
         1        35       757  1149.700  1149.700