# MODFLOW2000 Well Package
PARAMETER  0  0
       630        50   AUX IFACE
SPECIFY 1.000000e-003
       630         0               Stress Period 1
         1       619       435-0.000e+00         0
         2       619       435-0.000e+00         0
         1       649       396-0.000e+00         0
         2       725       137-17.249100         0
         2       217       517-0.000e+00         0
         2       632       511-0.000e+00         0
         2       504       396-0.000e+00         0
         2       519       511-0.000e+00         0
         2       747       546-0.000e+00         0
         2       726       526-0.000e+00         0
         2       751       659-0.000e+00         0
         2       773       658-0.000e+00         0
         1       835       792-0.000e+00         0
         2       878       546-0.000e+00         0
         2       738       599-0.000e+00         0
         2       750       325-0.000e+00         0
         2       750       245-0.000e+00         0
         2       644       459-0.000e+00         0
         1       774       405-0.000e+00         0
         2       774       405-0.000e+00         0
         2       661       538-0.000e+00         0
         2       639       420-0.000e+00         0
         2       839       559-0.000e+00         0
         1       468       831-11.558270         0
         2       468       831-22.510344         0
         3       468       831-0.4295867         0
         1       548       417-0.000e+00         0
         2       548       417-0.000e+00         0
         2       417       449-0.000e+00         0
         3       417       449-0.000e+00         0
         1       415       414-0.000e+00         0
         2       415       414-0.000e+00         0
         3       415       414-0.000e+00         0
         1       662       436-0.000e+00         0
         2       662       436-0.000e+00         0
         1       784       831-0.000e+00         0
         2       784       831-0.000e+00         0
         3       784       831-0.000e+00         0
         2       158       535-0.000e+00         0
         2       514       849-0.000e+00         0
         2       580       876-0.000e+00         0
         1       698       598-0.000e+00         0
         2       420       736-0.000e+00         0
         3       420       736-0.000e+00         0
         2       384       327-0.000e+00         0
         2       189       552-357.91891         0
         2       200       556-0.000e+00         0
         2       489       536-0.000e+00         0
         2       837       668-0.000e+00         0
         2       613       428-36742.699         0
         3       613       428-799.97137         0
         1       639       976-1406.0056         0
         2       639       976-6645.0132         0
         1       672       186-0.000e+00         0
         1       731       238-0.000e+00         0
         2       728       397-0.000e+00         0
         2       689       370-0.000e+00         0
         2       463       636-0.000e+00         0
         3       463       636-0.000e+00         0
         2       455       651-0.000e+00         0
         3       455       651-0.000e+00         0
         2       551       907-0.000e+00         0
         2       682        97-148.77350         0
         1       796       278-0.000e+00         0
         2       796       278-0.000e+00         0
         3       796       278-0.000e+00         0
         2       821       386-0.000e+00         0
         3       821       386-0.000e+00         0
         2       896       527-0.000e+00         0
         3       896       527-0.000e+00         0
         2       623       396-0.000e+00         0
         2       485       376-0.000e+00         0
         1       577       855-0.000e+00         0
         2       577       855-0.000e+00         0
         3       577       855-0.000e+00         0
         1       704       677-23.286301         0
         2       638       212-13365.101         0
         1       624       967-0.000e+00         0
         2       624       967-0.000e+00         0
         2       612       252-37728.961         0
         2       679       137-0.000e+00         0
         2       698       166-0.000e+00         0
         2       652       225-0.000e+00         0
         1       858        35-0.000e+00         0
         2       858        35-0.000e+00         0
         1       732        34-0.000e+00         0
         2       732        34-0.000e+00         0
         1       762       421-0.000e+00         0
         1       316       419-0.000e+00         0
         1       789       441-0.000e+00         0
         2       789       441-0.000e+00         0
         3       789       441-0.000e+00         0
         1       789       441-0.000e+00         0
         2       789       441-0.000e+00         0
         3       789       441-0.000e+00         0
         1       796       345-0.000e+00         0
         2       796       345-0.000e+00         0
         1       642       403-0.000e+00         0
         2       642       403-0.000e+00         0
         2       752       121-0.000e+00         0
         3       752       121-0.000e+00         0
         1       811       127-0.000e+00         0
         2       811       127-0.000e+00         0
         3       811       127-0.000e+00         0
         2       890       146-0.000e+00         0
         2       785       127-0.000e+00         0
         2       380       509-0.000e+00         0
         2       484       402-0.000e+00         0
         2       516       537-0.000e+00         0
         2       783       345-0.000e+00         0
         2       479       477-0.000e+00         0
         2       447       513-0.000e+00         0
         2       432       483-0.000e+00         0
         2       455       454-0.000e+00         0
         2       751       192-0.000e+00         0
         2       550       452-0.000e+00         0
         1       757       225-0.000e+00         0
         2       757       225-0.000e+00         0
         3       757       225-0.000e+00         0
         2       356       419-0.000e+00         0
         3       356       419-0.000e+00         0
         2       777       299-0.000e+00         0
         3       777       299-0.000e+00         0
         2       672       351-0.000e+00         0
         2       603       403-0.000e+00         0
         1       882       192-0.000e+00         0
         2       882       192-0.000e+00         0
         2       294       680-0.000e+00         0
         3       294       680-0.000e+00         0
         2       118       693-17.249100         0
         1       467       842-0.000e+00         0
         1       471       830-659.37659         0
         2       471       830-1257.2900         0
         3       471       830-23.857496         0
         2       405       511-0.000e+00         0
         2       836       512-0.000e+00         0
         2       423       407-0.000e+00         0
         3       423       407-0.000e+00         0
         2       616       566-0.000e+00         0
         1       817       863-0.000e+00         0
         2       817       863-0.000e+00         0
         2       683       571-0.000e+00         0
         1       156       547-0.000e+00         0
         2       514       822-0.000e+00         0
         2       526       795-0.000e+00         0
         2       650       609-1.8718286         0
         3       650       609-0.0255714         0
         2       506       605-2945.2842         0
         2       508       610-0.000e+00         0
         2       530       602-0.000e+00         0
         2       512       469-0.000e+00         0
         2       250       410-0.000e+00         0
         3       250       410-0.000e+00         0
         1       317       523-0.000e+00         0
         2       317       523-0.000e+00         0
         3       317       523-0.000e+00         0
         2       786       546-0.000e+00         0
         2       383       323-77.621002         0
         2       815       585-0.000e+00         0
         2       686       192-0.000e+00         0
         2       410       341-0.000e+00         0
         3       410       341-0.000e+00         0
         1       829       272-0.000e+00         0
         2       829       272-0.000e+00         0
         3       829       272-0.000e+00         0
         1       679        88-0.000e+00         0
         2       679        88-0.000e+00         0
         2       683        94-18.197800         0
         2       864       533-0.000e+00         0
         3       864       533-0.000e+00         0
         2       794       399-0.000e+00         0
         1       623       396-0.000e+00         0
         2       458       387-0.000e+00         0
         3       458       387-0.000e+00         0
         2       564       854-0.000e+00         0
         1       713       664-4.3123002         0
         2       679       172-0.000e+00         0
         1       699        41-0.000e+00         0
         2       699        41-0.000e+00         0
         1       692         8-0.000e+00         0
         2       678       212-0.000e+00         0
         2       752        14-0.000e+00         0
         2       758        87-0.000e+00         0
         1       713        54-0.000e+00         0
         2       713        54-0.000e+00         0
         2       608       454-0.000e+00         0
         2       339       571-0.000e+00         0
         2       818       128-0.000e+00         0
         1       859       452-0.000e+00         0
         2       859       452-0.000e+00         0
         3       859       452-0.000e+00         0
         1       880       377-0.000e+00         0
         2       880       377-0.000e+00         0
         3       880       377-0.000e+00         0
         2       251       538-0.000e+00         0
         2       218       530-0.000e+00         0
         3       218       530-0.000e+00         0
         2       736       572-0.000e+00         0
         2       821       373-0.000e+00         0
         2       752       143-0.000e+00         0
         2       731       277-0.000e+00         0
         2       535       452-0.000e+00         0
         3       535       452-0.000e+00         0
         2       750       672-2425.6550         0
         2       756       592-0.000e+00         0
         2       731       290-0.000e+00         0
         2       685       258-0.000e+00         0
         2       725       121-0.000e+00         0
         2       505       815-0.000e+00         0
         3       505       815-0.000e+00         0
         2       112       701-0.000e+00         0
         3       112       701-0.000e+00         0
         1       521       419-0.000e+00         0
         3       520       416-2846.1021         0
         2       518       475-0.000e+00         0
         1       849       472-0.000e+00         0
         2       638       512-0.000e+00         0
         2       531       650-0.000e+00         0
         1       859       651-0.000e+00         0
         2       859       651-0.000e+00         0
         2       695       545-1078.0688         0
         2       556       748-0.000e+00         0
         2       841       474-0.000e+00         0
         2       720       452-0.000e+00         0
         2       714       468-0.000e+00         0
         1       719        61-0.000e+00         0
         2       719        61-0.000e+00         0
         2       747       978-0.000e+00         0
         1       519       605-0.000e+00         0
         2       534       503-0.000e+00         0
         2       404       321-0.000e+00         0
         1       355       484-0.000e+00         0
         2       355       484-0.000e+00         0
         3       355       484-0.000e+00         0
         2       266       549-0.000e+00         0
         2       299       523-0.000e+00         0
         2       703       357-0.000e+00         0
         2       825       546-0.000e+00         0
         2       255       590-0.000e+00         0
         2       725       192-0.000e+00         0
         3       725       192-0.000e+00         0
         1       698       206-0.000e+00         0
         2       698       206-0.000e+00         0
         2       723       325-0.000e+00         0
         2       450       636-8.2796001         0
         1       438       394-0.000e+00         0
         2       438       394-0.000e+00         0
         2       883       246-0.000e+00         0
         3       883       246-0.000e+00         0
         2       797       513-0.000e+00         0
         2       617       967-0.000e+00         0
         2       618       257-58957.008         0
         2       702       144-0.000e+00         0
         1       784        34-0.000e+00         0
         2       784        34-0.000e+00         0
         1       778        67-0.000e+00         0
         2       778        67-0.000e+00         0
         3       778        67-0.000e+00         0
         2       838        87-0.000e+00         0
         1       752        94-0.000e+00         0
         2       752        94-0.000e+00         0
         3       752        94-0.000e+00         0
         1       471       405-0.000e+00         0
         2       471       405-0.000e+00         0
         3       471       405-0.000e+00         0
         2       132       682-0.000e+00         0
         3       132       682-0.000e+00         0
         2       807       412-0.000e+00         0
         3       807       412-0.000e+00         0
         1       828       350-0.000e+00         0
         2       646       311-0.000e+00         0
         2       683       447-0.000e+00         0
         1       763       325-0.000e+00         0
         2       763       325-0.000e+00         0
         3       763       325-0.000e+00         0
         2        39       592-0.000e+00         0
         2       296       425-0.000e+00         0
         3       296       425-0.000e+00         0
         2       477       468-8.6246004         0
         2       254       565-0.000e+00         0
         2       221       645-0.000e+00         0
         2       480       789-0.000e+00         0
         3       480       789-0.000e+00         0
         2       416       518-5.3471999         0
         2       372       473-0.000e+00         0
         3       372       473-0.000e+00         0
         2       569       517-0.000e+00         0
         2       798       532-0.000e+00         0
         2       177       515-0.000e+00         0
         2       662       922-0.000e+00         0
         2       818       107-0.000e+00         0
         3       818       107-0.000e+00         0
         2       725       996-0.000e+00         0
         2       741       398-49.987186         0
         3       741       398-1.7601123         0
         2       659       611-0.000e+00         0
         2       474       763-0.000e+00         0
         2       625       927-91.420197         0
         2       623       925-10.910100         0
         2       207       554-0.000e+00         0
         2       228       576-0.000e+00         0
         3       228       576-0.000e+00         0
         2       645       704-517.47308         0
         1       651       703-0.000e+00         0
         2       651       703-0.000e+00         0
         3       651       703-0.000e+00         0
         1       714       486-0.000e+00         0
         2       714       486-0.000e+00         0
         3       714       486-0.000e+00         0
         1       638       977-758.54907         0
         2       638       977-3584.3438         0
         2       681       361-100601.27         0
         3       681       361-2518.1794         0
         2       674       198-5411.9058         0
         2       672       186-0.000e+00         0
         3       672       186-0.000e+00         0
         2       723       351-0.000e+00         0
         3       478       330-0.000e+00         0
         2       450       636-0.000e+00         0
         1       486       311-3016.8240         0
         2       486       311-8738.7910         0
         3       486       311-236.82361         0
         2       466       317-119421.29         0
         3       466       317-4328.4629         0
         1       679       101-0.000e+00         0
         2       563       867-0.000e+00         0
         1       551       845-0.000e+00         0
         2       551       845-0.000e+00         0
         3       551       845-0.000e+00         0
         2       362       605-17.249100         0
         1       621       255-0.000e+00         0
         1       622       250-0.000e+00         0
         2       638       225-0.000e+00         0
         2       829       299-0.000e+00         0
         2       691       225-0.000e+00         0
         2       840       107-0.000e+00         0
         3       840       107-0.000e+00         0
         1       858       121-0.000e+00         0
         2       858       121-0.000e+00         0
         2       665       159-0.000e+00         0
         1       757       520-0.000e+00         0
         2       232       543-0.000e+00         0
         3       232       543-0.000e+00         0
         2       498       392-0.000e+00         0
         3       498       392-0.000e+00         0
         1       523       557-0.000e+00         0
         2       760       438-0.000e+00         0
         2       803       218-0.000e+00         0
         2       777       192-0.000e+00         0
         2       745       146-0.000e+00         0
         2       670       330-0.000e+00         0
         2       588       429-0.000e+00         0
         2       589       403-0.000e+00         0
         2       705       499-0.000e+00         0
         2       692       127-0.000e+00         0
         3       692       127-0.000e+00         0
         2       654       127-0.000e+00         0
         3       654       127-0.000e+00         0
         2       578       694-0.000e+00         0
         1       486       445-0.000e+00         0
         2       486       445-0.000e+00         0
         2       806       438-0.000e+00         0
         2       314       557-0.000e+00         0
         3       314       557-0.000e+00         0
         2       115       690-0.000e+00         0
         3       115       690-0.000e+00         0
         2       336       449-0.000e+00         0
         3       336       449-0.000e+00         0
         2       311       399-0.000e+00         0
         3       311       399-0.000e+00         0
         2       590       372-0.000e+00         0
         1       430       443-0.000e+00         0
         2       430       443-0.000e+00         0
         3       430       443-0.000e+00         0
         2       397       440-0.000e+00         0
         2       617       538-0.000e+00         0
         2       692        61-0.000e+00         0
         2       531       650-189.30890         0
         2       735       559-0.000e+00         0
         2       806       656-0.000e+00         0
         2       593       928-0.000e+00         0
         2       682       545-0.000e+00         0
         2       732       101-0.000e+00         0
         2       732        61-0.000e+00         0
         2       813       102-0.000e+00         0
         3       813       102-0.000e+00         0
         2       647       610-0.000e+00         0
         2       685       479-0.000e+00         0
         2       673       512-0.000e+00         0
         2       492       553-0.000e+00         0
         2       544       554-0.000e+00         0
         2       556       534-0.000e+00         0
         3       556       534-0.000e+00         0
         2       304       537-0.000e+00         0
         3       304       537-0.000e+00         0
         2       330       537-0.000e+00         0
         2       881       482-0.000e+00         0
         2       807       452-0.000e+00         0
         2       620       369-8858.4492         0
         2       856       259-0.000e+00         0
         2       855       299-0.000e+00         0
         3       855       299-0.000e+00         0
         2       771       265-0.000e+00         0
         2       504       289-0.000e+00         0
         2       796       198-0.000e+00         0
         3       796       198-0.000e+00         0
         2       685        15-0.000e+00         0
         3       685        15-0.000e+00         0
         2       686        13-0.000e+00         0
         3       686        13-0.000e+00         0
         2       784        21-0.000e+00         0
         2       838        74-0.000e+00         0
         2       758        47-0.000e+00         0
         1       804        41-0.000e+00         0
         2       804        41-0.000e+00         0
         3       804        41-0.000e+00         0
         2       258       689-0.000e+00         0
         1       512       782-388.10480         0
         2       512       801-0.000e+00         0
         3       512       801-0.000e+00         0
         1       850       158-0.000e+00         0
         2       850       158-0.000e+00         0
         2       458       483-0.000e+00         0
         2       713       519-0.000e+00         0
         2       842       598-0.000e+00         0
         2       868       599-0.000e+00         0
         2       252       696-0.000e+00         0
         2       789       325-0.000e+00         0
         2       789       325-0.000e+00         0
         2       775       379-0.000e+00         0
         2       672       114-0.000e+00         0
         2       121       694-310.48380         0
         1       852       444-0.000e+00         0
         2       852       444-0.000e+00         0
         2       516       422-103.49460         0
         1       744       504-0.000e+00         0
         2       610       357-0.000e+00         0
         2       425       420-0.000e+00         0
         2       597       551-0.000e+00         0
         2       537       656-73.308701         0
         2       588       938-274.90759         0
         2       727       437-0.000e+00         0
         2       798        87-0.000e+00         0
         1       519       842-0.000e+00         0
         2       519       842-0.000e+00         0
         1       741       398-6.5877652         0
         2       741       398-6.3490348         0
         2       732        48-0.000e+00         0
         2       673       611-0.000e+00         0
         2       478       768-0.000e+00         0
         2       406       483-0.000e+00         0
         2       556       534-0.000e+00         0
         2       665       567-0.000e+00         0
         2       404       321-0.000e+00         0
         3       404       321-0.000e+00         0
         3       196       512-0.000e+00         0
         2       357       536-0.000e+00         0
         3       357       536-0.000e+00         0
         2       293       563-0.000e+00         0
         2       299       546-100.38666         0
         3       299       546-3.1079459         0
         2       603       428-31515.680         0
         3       603       428-684.08246         0
         2       673       205-0.000e+00         0
         2       662       194-0.000e+00         0
         3       662       194-0.000e+00         0
         2       755       371-0.000e+00         0
         2       769       238-0.000e+00         0
         3       769       238-0.000e+00         0
         2       774       456-0.000e+00         0
         2       804       258-0.000e+00         0
         3       804       258-0.000e+00         0
         2       882       259-0.000e+00         0
         2       803       272-0.000e+00         0
         3       803       272-0.000e+00         0
         2       809       346-0.000e+00         0
         2       877       533-8.6246004         0
         1       495       730-2136.4668         0
         2       495       730-36706.633         0
         3       495       730-692.57794         0
         1       629       249-0.000e+00         0
         2       629       249-0.000e+00         0
         2       164       529-0.000e+00         0
         3       164       529-0.000e+00         0
         2       724       258-0.000e+00         0
         2       758        74-0.000e+00         0
         2       732       146-0.000e+00         0
         3       732       146-0.000e+00         0
         2       785       145-0.000e+00         0
         2       692       591-0.000e+00         0
         3       692       591-0.000e+00         0
         2       482       428-0.000e+00         0
         2       820       412-0.000e+00         0
         2       777       218-0.000e+00         0
         2       750       325-0.000e+00         0
         2       701       245-0.000e+00         0
         2       602       717-0.000e+00         0
         2       303       445-0.000e+00         0
         2       521       433-0.000e+00         0
         2       812       546-0.000e+00         0
         2       826       559-0.000e+00         0
         2       376       472-543.34668         0
         2       669       454-0.000e+00         0
         1       741       458-0.000e+00         0
         2       741       458-0.000e+00         0
         3       741       458-0.000e+00         0
         2       728       410-0.000e+00         0
         2       537       405-0.000e+00         0
         2       546       416-0.000e+00         0
         2       529       524-0.000e+00         0
         2       593       941-291.07861         0
         2       703       565-0.000e+00         0
         2       733       618-0.000e+00         0
         2       156       547-3751.6797         0
         1       115       535-0.000e+00         0
         2       115       535-0.000e+00         0
         3       115       535-0.000e+00         0
         1       705        94-0.000e+00         0
         2       705        94-0.000e+00         0
         2       767       452-0.000e+00         0
         3       767       452-0.000e+00         0
         2       798       114-0.000e+00         0
         1       701       436-0.000e+00         0
         2       701       436-0.000e+00         0
         1       472       768-460.60855         0
         2       472       768-817.20605         0
         3       472       768-15.868079         0
         2       672       499-0.000e+00         0
         2       517       357-0.000e+00         0
         2       397       327-0.000e+00         0
         3       397       327-0.000e+00         0
         2       191       529-0.000e+00         0
         2       289       537-0.000e+00         0
         2       180       575-0.000e+00         0
         2       813       559-0.000e+00         0
         2       701       538-0.000e+00         0
         2       713       468-0.000e+00         0
         2       303       647-0.000e+00         0
         2       724       219-0.000e+00         0
         3       724       219-0.000e+00         0
         2       886       400-0.000e+00         0
         2       786       559-0.000e+00         0
         3       786       559-0.000e+00         0
         2       466       317-84510.578         0
         3       466       317-3063.1128         0
         2       683        98-2.5874000         0
         2       850       519-0.000e+00         0
         2       852       559-0.000e+00         0
         2       896       526-0.000e+00         0
         2       481       611-0.000e+00         0
         3       481       611-0.000e+00         0
         1       555       846-0.000e+00         0
         2       555       846-0.000e+00         0
         3       555       846-0.000e+00         0
         2       891        21-0.000e+00         0
         2       666       127-0.000e+00         0
         1       757       172-0.000e+00         0
         2       757       172-0.000e+00         0
         2       809       292-0.000e+00         0
         1       764         1-0.000e+00         0
         2       249       776-0.000e+00         0
         1       665       146-0.000e+00         0
         2       665       146-0.000e+00         0
         3       665       146-0.000e+00         0
         2       758       159-0.000e+00         0
         2       745       127-0.000e+00         0
         2       778       121-0.000e+00         0
         1       748       559-0.000e+00         0
         2       752       454-0.000e+00         0
         2       725       166-0.000e+00         0
         2       865       644-0.000e+00         0
         2       580       902-6365.0054         0
         2       316       419-0.000e+00         0