# SFR Package for MODFLOW2000
 -3347  41  0  0  1.283904e+005  1.000000e-003  50  -50 1 0 0 0
  1  570  458  1  1  86.921520  1087.100000  0.000389  0.900000  2.493963
  1  570  457  1  2  11.187760  1087.066000  0.003443  0.900000  2.493963
  1  569  457  1  3  141.945400  1087.028000  0.000429  0.900000  2.493963
  1  569  456  1  4  100.375500  1086.967000  0.000503  0.900000  2.493963
  1  569  455  1  5  100.273300  1086.916000  0.000493  0.900000  2.493963
  1  569  454  1  6  96.170960  1086.867000  0.000262  0.900000  2.493963
  1  568  454  1  7  4.102314  1086.842000  0.006401  0.900000  2.493963
  1  568  453  1  8  100.273300  1086.815000  0.000503  0.900000  2.493963
  1  568  452  1  9  100.273300  1086.765000  0.000503  0.900000  2.493963
  1  568  451  1  10  100.273300  1086.714000  0.000503  0.900000  2.493963
  1  568  450  1  11  100.273300  1086.664000  0.000503  0.900000  2.493963
  1  568  449  1  12  100.358600  1086.613000  0.000503  0.900000  2.493963
  1  568  448  1  13  100.377600  1086.563000  0.000503  0.900000  2.493963
  1  568  447  1  14  100.377600  1086.512000  0.000503  0.900000  2.493963
  1  568  446  1  15  100.377600  1086.462000  0.000503  0.900000  2.493963
  1  568  445  1  16  100.377600  1086.411000  0.000503  0.900000  2.493963
  1  568  444  1  17  100.308400  1086.361000  0.000503  0.900000  2.493963
  1  568  443  1  18  100.295900  1086.310000  0.000404  0.900000  2.493963
  1  568  442  1  19  1.000000  1086.270000  0.000667  0.900000  0.000000
  1  554  453  2  1  9.632829  1091.000000  0.000308  0.900000  2.493963
  1  555  453  2  2  100.004700  1090.997000  0.000100  0.900000  2.493963
  1  556  453  2  3  100.004700  1090.992000  0.000100  0.900000  2.493963
  1  557  453  2  4  100.004700  1090.986000  0.000100  0.900000  2.493963
  1  558  453  2  5  100.004700  1090.981000  0.000100  0.900000  2.493963
  1  559  453  2  6  100.004700  1090.975000  0.000100  0.900000  2.493963
  1  560  453  2  7  100.004700  1090.970000  0.003770  0.900000  2.493963
  1  561  453  2  8  100.004700  1090.593000  0.002332  0.900000  2.493963
  1  562  453  2  9  1.000000  1090.360000  0.009833  0.900000  0.000000
  1  548  441  3  1  44.778350  1089.000000  0.003994  0.900000  2.493963
  1  549  441  3  2  100.021600  1088.821000  0.002470  0.900000  2.493963
  1  550  441  3  3  100.021600  1088.574000  0.002470  0.900000  2.493963
  1  551  441  3  4  100.021600  1088.327000  0.002470  0.900000  2.493963
  1  552  441  3  5  100.021600  1088.080000  0.000971  0.900000  2.493963
  1  553  441  3  6  100.021600  1087.983000  0.000971  0.900000  2.493963
  1  554  441  3  7  100.021600  1087.886000  0.000971  0.900000  2.493963
  1  555  441  3  8  100.021600  1087.789000  0.000971  0.900000  2.493963
  1  556  441  3  9  100.021600  1087.691000  0.000899  0.900000  2.493963
  1  557  441  3  10  85.125610  1087.602000  0.000571  0.900000  2.493963
  1  557  442  3  11  14.896010  1087.553000  0.003746  0.900000  2.493963
  1  558  442  3  12  100.021600  1087.497000  0.000971  0.900000  2.493963
  1  559  442  3  13  100.021600  1087.400000  0.004321  0.900000  2.493963
  1  560  442  3  14  100.021600  1086.968000  0.003077  0.900000  2.493963
  1  561  442  3  15  1.000000  1086.660000  0.007251  0.900000  0.000000
  1  587  442  4  1  45.589990  1087.000000  0.004979  0.900000  2.493963
  1  586  442  4  2  100.058300  1086.773000  0.003117  0.900000  2.493963
  1  585  442  4  3  100.058300  1086.461000  0.003117  0.900000  2.493963
  1  584  442  4  4  100.058300  1086.149000  0.003117  0.900000  2.493963
  1  583  442  4  5  100.058300  1085.837000  0.003117  0.900000  2.493963
  1  582  442  4  6  100.058300  1085.526000  0.003117  0.900000  2.493963
  1  581  442  4  7  100.058300  1085.214000  0.003117  0.900000  2.493963
  1  580  442  4  8  100.058300  1084.902000  0.003117  0.900000  2.493963
  1  579  442  4  9  100.058300  1084.590000  0.000100  0.900000  2.493963
  1  578  442  4  10  1.000000  1084.590000  0.000100  0.900000  0.000000
  1  588  426  5  1  67.689140  1089.000000  0.004185  0.900000  2.493963
  1  587  426  5  2  100.004100  1088.717000  0.003379  0.900000  2.493963
  1  586  426  5  3  100.004100  1088.379000  0.003379  0.900000  2.493963
  1  585  426  5  4  100.004100  1088.041000  0.003379  0.900000  2.493963
  1  584  426  5  5  100.004100  1087.703000  0.003379  0.900000  2.493963
  1  583  426  5  6  100.004100  1087.365000  0.003379  0.900000  2.493963
  1  582  426  5  7  100.004100  1087.027000  0.003379  0.900000  2.493963
  1  581  426  5  8  100.004100  1086.689000  0.003379  0.900000  2.493963
  1  580  426  5  9  100.004100  1086.352000  0.003379  0.900000  2.493963
  1  579  426  5  10  100.004100  1086.014000  0.003379  0.900000  2.493963
  1  578  426  5  11  100.004100  1085.676000  0.003379  0.900000  2.493963
  1  577  426  5  12  100.004100  1085.338000  0.003379  0.900000  2.493963
  1  576  426  5  13  100.004100  1085.000000  0.003379  0.900000  2.493963
  1  825  464  6  1  10.303820  1076.266000  0.040683  0.900000  2.493963
  1  826  464  6  2  103.567400  1075.847000  0.002111  0.900000  2.493963
  1  827  464  6  3  37.193840  1075.628000  0.006101  0.900000  2.493963
  1  827  463  6  4  77.505440  1075.401000  0.003662  0.900000  2.493963
  1  828  463  6  5  87.301250  1075.117000  0.008485  0.900000  2.493963
  1  828  462  6  6  103.283300  1074.377000  0.006574  0.900000  2.493963
  1  828  461  6  7  49.528660  1073.698000  0.006767  0.900000  2.493963
  1  829  461  6  8  57.801430  1073.363000  0.009139  0.900000  2.493963
  1  829  460  6  9  111.351100  1072.834000  0.008707  0.900000  2.493963
  1  829  459  6  10  59.026540  1071.865000  0.009659  0.900000  2.493963
  1  830  459  6  11  55.637530  1071.295000  0.015616  0.900000  2.493963
  1  830  458  6  12  119.106200  1070.426000  0.004293  0.900000  2.493963
  1  830  457  6  13  10.246610  1069.915000  0.102204  0.900000  2.493963
  1  831  457  6  14  122.993800  1068.867000  0.008155  0.900000  2.493963
  1  831  456  6  15  26.135150  1067.864000  0.011814  0.900000  2.493963
  1  832  456  6  16  116.387400  1067.556000  0.002612  0.900000  2.493963
  1  832  455  6  17  23.957970  1067.251000  0.003021  0.900000  2.493963
  1  833  455  6  18  112.650900  1067.179000  0.005023  0.900000  2.493963
  1  833  454  6  19  52.667790  1066.613000  0.004282  0.900000  2.493963
  1  834  454  6  20  61.257900  1066.388000  0.005661  0.900000  2.493963
  1  834  453  6  21  113.925700  1066.041000  0.001292  0.900000  2.493963
  1  834  452  6  22  29.476410  1065.894000  0.014619  0.900000  2.493963
  1  835  452  6  23  94.096720  1065.463000  0.002296  0.900000  2.493963
  1  835  451  6  24  72.967120  1065.247000  0.008005  0.900000  2.493963
  1  836  451  6  25  51.866250  1064.663000  0.020511  0.900000  2.493963
  1  836  450  6  26  115.197600  1063.599000  0.004934  0.900000  2.493963
  1  837  450  6  27  9.635787  1063.031000  0.063535  0.900000  2.493963
  1  837  449  6  28  124.833400  1062.418000  0.000100  0.900000  2.493963
  1  837  448  6  29  32.594680  1062.415000  0.000100  0.900000  2.493963
  1  838  448  6  30  92.238690  1062.412000  0.000100  0.900000  2.493963
  1  838  447  6  31  74.825150  1062.409000  0.000100  0.900000  2.493963
  1  839  447  6  32  44.677270  1062.406000  0.000100  0.900000  2.493963
  1  839  446  6  33  103.714600  1062.403000  0.000100  0.900000  2.493963
  1  839  445  6  34  103.714600  1062.398000  0.000100  0.900000  2.493963
  1  839  444  6  35  1.000000  1062.396000  0.000100  0.900000  0.000000
  1  839  444  6  36  101.205600  1062.393000  0.000100  0.900000  2.493963
  1  839  443  6  37  100.907700  1062.389000  0.000100  0.900000  2.493963
  1  839  442  6  38  100.907700  1062.385000  0.000100  0.900000  2.493963
  1  839  441  6  39  100.165600  1062.381000  0.000100  0.900000  2.493963
  1  839  440  6  40  100.025100  1062.376000  0.000100  0.900000  2.493963
  1  839  439  6  41  100.025100  1062.372000  0.000220  0.900000  2.493963
  1  839  438  6  42  100.025100  1062.350000  0.000100  0.900000  2.493963
  1  839  437  6  43  100.025100  1062.341000  0.000100  0.900000  2.493963
  1  839  436  6  44  100.025100  1062.333000  0.000937  0.900000  2.493963
  1  839  435  6  45  100.025100  1062.239000  0.001026  0.900000  2.493963
  1  839  434  6  46  100.025100  1062.136000  0.000779  0.900000  2.493963
  1  839  433  6  47  100.025100  1062.058000  0.001358  0.900000  2.493963
  1  839  432  6  48  100.025100  1061.922000  0.001114  0.900000  2.493963
  1  839  431  6  49  100.025100  1061.811000  0.001324  0.900000  2.493963
  1  839  430  6  50  100.025100  1061.678000  0.001650  0.900000  2.493963
  1  839  429  6  51  100.025100  1061.513000  0.001792  0.900000  2.493963
  1  839  428  6  52  100.025100  1061.334000  0.001306  0.900000  2.493963
  1  839  427  6  53  100.025100  1061.204000  0.003831  0.900000  2.493963
  1  839  426  6  54  100.025100  1060.820000  0.008016  0.900000  2.493963
  1  839  425  6  55  100.025100  1060.019000  0.009756  0.900000  2.493963
  1  839  424  6  56  100.025100  1059.043000  0.007563  0.900000  2.493963
  1  839  423  6  57  100.025100  1058.286000  0.008079  0.900000  2.493963
  1  839  422  6  58  100.025100  1057.478000  0.000216  0.900000  2.493963
  1  839  421  6  59  100.025100  1057.457000  0.000216  0.900000  2.493963
  1  839  420  6  60  100.025100  1057.435000  0.000216  0.900000  2.493963
  1  839  419  6  61  100.025100  1057.414000  0.000216  0.900000  2.493963
  1  839  418  6  62  100.025100  1057.392000  0.000216  0.900000  2.493963
  1  839  417  6  63  100.025100  1057.370000  0.004534  0.900000  2.493963
  1  839  416  6  64  100.025100  1056.917000  0.033193  0.900000  2.493963
  1  839  415  6  65  82.131990  1053.597000  0.022198  0.900000  2.493963
  1  840  415  6  66  17.893120  1051.774000  0.000100  0.900000  2.493963
  1  840  414  6  67  100.025100  1051.774000  0.000100  0.900000  2.493963
  1  840  413  6  68  100.041000  1051.774000  0.000100  0.900000  2.493963
  1  840  412  6  69  100.061200  1051.774000  0.000100  0.900000  2.493963
  1  840  411  6  70  100.061200  1051.774000  0.000100  0.900000  2.493963
  1  840  410  6  71  100.061200  1051.774000  0.000100  0.900000  2.493963
  1  840  409  6  72  100.061200  1051.774000  0.000100  0.900000  2.493963
  1  840  408  6  73  100.061200  1051.774000  0.000100  0.900000  2.493963
  1  840  407  6  74  100.061200  1051.774000  0.000100  0.900000  2.493963
  1  840  406  6  75  100.061200  1051.774000  0.000100  0.900000  2.493963
  1  840  405  6  76  100.061200  1051.774000  0.000100  0.900000  2.493963
  1  840  404  6  77  100.061200  1051.774000  0.000100  0.900000  2.493963
  1  840  403  6  78  101.792500  1051.774000  0.000100  0.900000  2.493963
  1  840  402  6  79  101.965500  1051.774000  0.000100  0.900000  2.493963
  1  840  401  6  80  101.965500  1051.774000  0.000100  0.900000  2.493963
  1  840  400  6  81  21.078780  1051.774000  0.000100  0.900000  2.493963
  1  841  400  6  82  82.105960  1051.774000  0.000100  0.900000  2.493963
  1  841  399  6  83  103.300200  1051.774000  0.000100  0.900000  2.493963
  1  841  398  6  84  103.300200  1051.774000  0.000100  0.900000  2.493963
  1  841  397  6  85  103.300200  1051.774000  0.000100  0.900000  2.493963
  1  841  396  6  86  6.799351  1051.774000  0.000100  0.900000  2.493963
  1  842  396  6  87  96.500860  1051.774000  0.000100  0.900000  2.493963
  1  842  395  6  88  1.000000  1051.774000  0.000100  0.900000  0.000000
  1  771  298  7  1  85.245400  1056.215000  0.000447  0.900000  2.493963
  1  772  298  7  2  100.000800  1056.177000  0.000100  0.900000  2.493963
  1  773  298  7  3  100.000800  1056.177000  0.000100  0.900000  2.493963
  1  774  298  7  4  100.000800  1056.176000  0.000100  0.900000  2.493963
  1  775  298  7  5  100.000800  1056.176000  0.000100  0.900000  2.493963
  1  776  298  7  6  100.000800  1056.175000  0.000100  0.900000  2.493963
  1  777  298  7  7  100.000800  1056.175000  0.000100  0.900000  2.493963
  1  778  298  7  8  100.000800  1056.174000  0.000100  0.900000  2.493963
  1  779  298  7  9  100.000800  1056.174000  0.000100  0.900000  2.493963
  1  780  298  7  10  100.000900  1056.173000  0.000100  0.900000  2.493963
  1  781  298  7  11  100.001100  1056.172000  0.000100  0.900000  2.493963
  1  782  298  7  12  100.001100  1056.172000  0.000100  0.900000  2.493963
  1  783  298  7  13  100.001100  1056.171000  0.000100  0.900000  2.493963
  1  784  298  7  14  100.905200  1056.170000  0.000100  0.900000  2.493963
  1  785  298  7  15  101.833900  1056.170000  0.000100  0.900000  2.493963
  1  786  298  7  16  100.022200  1056.169000  0.000100  0.900000  2.493963
  1  787  298  7  17  100.022200  1056.168000  0.000100  0.900000  2.493963
  1  788  298  7  18  100.167500  1056.168000  0.000100  0.900000  2.493963
  1  789  298  7  19  104.177900  1056.167000  0.000100  0.900000  2.493963
  1  790  298  7  20  85.699860  1056.166000  0.000100  0.900000  2.493963
  1  790  299  7  21  17.715130  1056.166000  0.000100  0.900000  2.493963
  1  791  299  7  22  106.992600  1056.165000  0.000100  0.900000  2.493963
  1  792  299  7  23  115.377000  1056.165000  0.000100  0.900000  2.493963
  1  793  300  7  24  124.783500  1056.164000  0.000100  0.900000  2.493963
  1  794  300  7  25  40.403010  1056.163000  0.000100  0.900000  2.493963
  1  794  301  7  26  85.234680  1056.163000  0.000100  0.900000  2.493963
  1  795  301  7  27  79.951880  1056.162000  0.000100  0.900000  2.493963
  1  795  302  7  28  45.685810  1056.162000  0.000100  0.900000  2.493963
  1  796  302  7  29  119.500700  1056.161000  0.000100  0.900000  2.493963
  1  796  303  7  30  6.136938  1056.161000  0.000100  0.900000  2.493963
  1  797  303  7  31  125.637700  1056.160000  0.000100  0.900000  2.493963
  1  798  303  7  32  33.411930  1056.160000  0.000100  0.900000  2.493963
  1  798  304  7  33  92.428010  1056.159000  0.000100  0.900000  2.493963
  1  799  304  7  34  69.332950  1056.159000  0.000100  0.900000  2.493963
  1  799  305  7  35  59.750810  1056.158000  0.000100  0.900000  2.493963
  1  800  305  7  36  98.391910  1056.158000  0.000100  0.900000  2.493963
  1  800  306  7  37  30.691840  1056.157000  0.000100  0.900000  2.493963
  1  801  306  7  38  127.450900  1056.157000  0.000100  0.900000  2.493963
  1  801  307  7  39  1.632876  1056.156000  0.000278  0.900000  2.493963
  1  802  307  7  40  130.681400  1056.156000  0.000100  0.900000  2.493963
  1  803  307  7  41  21.487000  1056.156000  0.000100  0.900000  2.493963
  1  803  308  7  42  117.652200  1056.155000  0.000100  0.900000  2.493963
  1  804  308  7  43  26.167390  1056.155000  0.000100  0.900000  2.493963
  1  804  309  7  44  112.971800  1056.154000  0.000100  0.900000  2.493963
  1  805  309  7  45  30.847780  1056.154000  0.000100  0.900000  2.493963
  1  805  310  7  46  108.291400  1056.153000  0.000100  0.900000  2.493963
  1  806  310  7  47  35.528170  1056.153000  0.000100  0.900000  2.493963
  1  806  311  7  48  101.983600  1056.152000  0.000100  0.900000  2.493963
  1  807  311  7  49  47.539270  1056.152000  0.000100  0.900000  2.493963
  1  807  312  7  50  82.510410  1056.151000  0.000100  0.900000  2.493963
  1  808  312  7  51  106.951500  1056.151000  0.000100  0.900000  2.493963
  1  809  312  7  52  100.002800  1056.150000  0.000100  0.900000  2.493963
  1  810  312  7  53  100.002800  1056.149000  0.000100  0.900000  2.493963
  1  811  312  7  54  100.002800  1056.148000  0.000100  0.900000  2.493963
  1  812  312  7  55  100.002800  1056.148000  0.000100  0.900000  2.493963
  1  813  312  7  56  100.002800  1056.147000  0.000100  0.900000  2.493963
  1  814  312  7  57  100.002800  1056.146000  0.000100  0.900000  2.493963
  1  815  312  7  58  100.002800  1056.146000  0.000100  0.900000  2.493963
  1  816  312  7  59  100.002800  1056.146000  0.000100  0.900000  2.493963
  1  817  312  7  60  100.002800  1056.146000  0.000100  0.900000  2.493963
  1  818  312  7  61  100.002800  1056.146000  0.000100  0.900000  2.493963
  1  819  312  7  62  100.002800  1056.146000  0.000100  0.900000  2.493963
  1  820  312  7  63  100.002800  1056.146000  0.000100  0.900000  2.493963
  1  821  312  7  64  100.002800  1056.144000  0.000100  0.900000  2.493963
  1  822  312  7  65  100.002800  1056.142000  0.000100  0.900000  2.493963
  1  823  312  7  66  100.002800  1056.140000  0.000100  0.900000  2.493963
  1  824  312  7  67  100.002800  1056.139000  0.000100  0.900000  2.493963
  1  825  312  7  68  100.002800  1056.137000  0.000100  0.900000  2.493963
  1  826  312  7  69  100.002800  1056.135000  0.000100  0.900000  2.493963
  1  827  312  7  70  100.002800  1056.133000  0.000100  0.900000  2.493963
  1  828  312  7  71  100.002800  1056.132000  0.000100  0.900000  2.493963
  1  829  312  7  72  100.002800  1056.130000  0.000100  0.900000  2.493963
  1  830  312  7  73  100.002800  1056.128000  0.000100  0.900000  2.493963
  1  831  312  7  74  100.002800  1056.126000  0.000100  0.900000  2.493963
  1  832  312  7  75  100.002800  1056.125000  0.000327  0.900000  2.493963
  1  833  312  7  76  100.002800  1056.092000  0.000327  0.900000  2.493963
  1  834  312  7  77  100.002800  1056.059000  0.000419  0.900000  2.493963
  1  835  312  7  78  100.002800  1056.017000  0.000419  0.900000  2.493963
  1  836  312  7  79  100.002800  1055.975000  0.000289  0.900000  2.493963
  1  837  312  7  80  100.002800  1055.947000  0.000597  0.900000  2.493963
  1  838  312  7  81  100.002800  1055.887000  0.000588  0.900000  2.493963
  1  839  312  7  82  100.002800  1055.828000  0.001438  0.900000  2.493963
  1  840  312  7  83  100.002800  1055.684000  0.000532  0.900000  2.493963
  1  841  312  7  84  100.002800  1055.631000  0.010182  0.900000  2.493963
  1  842  312  7  85  100.002800  1054.613000  0.022791  0.900000  2.493963
  1  843  312  7  86  100.002800  1052.334000  0.000237  0.900000  2.493963
  1  844  312  7  87  100.002800  1052.310000  0.000225  0.900000  2.493963
  1  845  312  7  88  89.603360  1052.287000  0.000136  0.900000  2.493963
  1  845  313  7  89  10.399410  1052.275000  0.000100  0.900000  2.493963
  1  846  313  7  90  100.002800  1052.275000  0.000100  0.900000  2.493963
  1  847  313  7  91  100.002800  1052.266000  0.000100  0.900000  2.493963
  1  848  313  7  92  100.002800  1052.258000  0.000100  0.900000  2.493963
  1  849  313  7  93  100.002800  1052.250000  0.000100  0.900000  2.493963
  1  850  313  7  94  100.002800  1052.242000  0.000100  0.900000  2.493963
  1  851  313  7  95  100.002800  1052.234000  0.000100  0.900000  2.493963
  1  852  313  7  96  100.002800  1052.226000  0.000100  0.900000  2.493963
  1  853  313  7  97  100.002800  1052.217000  0.000100  0.900000  2.493963
  1  854  313  7  98  100.002800  1052.209000  0.000100  0.900000  2.493963
  1  855  313  7  99  100.002800  1052.201000  0.000100  0.900000  2.493963
  1  856  313  7  100  100.002800  1052.193000  0.000100  0.900000  2.493963
  1  857  313  7  101  100.002800  1052.185000  0.000100  0.900000  2.493963
  1  858  313  7  102  100.002800  1052.176000  0.000100  0.900000  2.493963
  1  859  313  7  103  100.002800  1052.168000  0.000100  0.900000  2.493963
  1  860  313  7  104  100.002800  1052.160000  0.002934  0.900000  2.493963
  1  861  313  7  105  100.002800  1051.867000  0.000157  0.900000  2.493963
  1  862  313  7  106  100.002800  1051.851000  0.000157  0.900000  2.493963
  1  863  313  7  107  100.002800  1051.835000  0.000157  0.900000  2.493963
  1  864  313  7  108  100.002800  1051.820000  0.000157  0.900000  2.493963
  1  865  313  7  109  100.002800  1051.804000  0.000157  0.900000  2.493963
  1  866  313  7  110  100.002800  1051.788000  0.000146  0.900000  2.493963
  1  867  313  7  111  1.000000  1051.774000  0.000169  0.900000  0.000000
  1  867  313  8  1  132.063500  1051.774000  0.000100  0.900000  2.493963
  1  867  312  8  2  100.041200  1051.773000  0.000100  0.900000  2.493963
  1  867  311  8  3  100.041200  1051.771000  0.000100  0.900000  2.493963
  1  867  310  8  4  100.041200  1051.769000  0.000100  0.900000  2.493963
  1  867  309  8  5  100.041200  1051.768000  0.000100  0.900000  2.493963
  1  867  308  8  6  45.032340  1051.766000  0.000100  0.900000  2.493963
  1  868  308  8  7  55.008830  1051.766000  0.000100  0.900000  2.493963
  1  868  307  8  8  100.041200  1051.764000  0.000100  0.900000  2.493963
  1  868  306  8  9  100.041200  1051.763000  0.000100  0.900000  2.493963
  1  868  305  8  10  100.041200  1051.761000  0.000100  0.900000  2.493963
  1  868  304  8  11  100.041200  1051.759000  0.000100  0.900000  2.493963
  1  868  303  8  12  100.041200  1051.758000  0.000100  0.900000  2.493963
  1  868  302  8  13  100.041200  1051.756000  0.000100  0.900000  2.493963
  1  868  301  8  14  100.041200  1051.755000  0.000100  0.900000  2.493963
  1  868  300  8  15  100.041200  1051.753000  0.000100  0.900000  2.493963
  1  868  299  8  16  100.041200  1051.751000  0.000100  0.900000  2.493963
  1  868  298  8  17  100.041200  1051.750000  0.000100  0.900000  2.493963
  1  868  297  8  18  100.041200  1051.748000  0.000100  0.900000  2.493963
  1  868  296  8  19  100.041200  1051.746000  0.000100  0.900000  2.493963
  1  868  295  8  20  100.041200  1051.745000  0.000100  0.900000  2.493963
  1  868  294  8  21  100.041200  1051.743000  0.000100  0.900000  2.493963
  1  868  293  8  22  100.041200  1051.741000  0.000100  0.900000  2.493963
  1  868  292  8  23  100.041200  1051.740000  0.000100  0.900000  2.493963
  1  868  291  8  24  100.041200  1051.738000  0.000100  0.900000  2.493963
  1  868  290  8  25  100.041200  1051.736000  0.000100  0.900000  2.493963
  1  868  289  8  26  100.041200  1051.735000  0.000100  0.900000  2.493963
  1  868  288  8  27  100.041200  1051.733000  0.000100  0.900000  2.493963
  1  868  287  8  28  100.041200  1051.731000  0.000100  0.900000  2.493963
  1  868  286  8  29  100.041200  1051.730000  0.000100  0.900000  2.493963
  1  868  285  8  30  92.015510  1051.728000  0.000100  0.900000  2.493963
  1  869  285  8  31  72.144020  1051.727000  0.000100  0.900000  2.493963
  1  869  284  8  32  105.455500  1051.725000  0.000100  0.900000  2.493963
  1  869  283  8  33  100.003100  1051.724000  0.000100  0.900000  2.493963
  1  869  282  8  34  100.003100  1051.722000  0.000100  0.900000  2.493963
  1  869  281  8  35  100.003100  1051.720000  0.000100  0.900000  2.493963
  1  869  280  8  36  100.003100  1051.719000  0.000100  0.900000  2.493963
  1  869  279  8  37  100.003100  1051.717000  0.000100  0.900000  2.493963
  1  869  278  8  38  100.003100  1051.716000  0.000100  0.900000  2.493963
  1  869  277  8  39  100.003100  1051.714000  0.000100  0.900000  2.493963
  1  869  276  8  40  100.003100  1051.712000  0.000100  0.900000  2.493963
  1  869  275  8  41  100.003100  1051.711000  0.000100  0.900000  2.493963
  1  869  274  8  42  100.003100  1051.709000  0.000100  0.900000  2.493963
  1  869  273  8  43  100.003100  1051.707000  0.000100  0.900000  2.493963
  1  869  272  8  44  100.003100  1051.706000  0.000100  0.900000  2.493963
  1  869  271  8  45  100.003100  1051.704000  0.000100  0.900000  2.493963
  1  869  270  8  46  100.003100  1051.702000  0.000100  0.900000  2.493963
  1  869  269  8  47  100.003100  1051.701000  0.000100  0.900000  2.493963
  1  869  268  8  48  100.003100  1051.699000  0.000100  0.900000  2.493963
  1  869  267  8  49  100.003100  1051.697000  0.000100  0.900000  2.493963
  1  869  266  8  50  100.003100  1051.696000  0.000100  0.900000  2.493963
  1  869  265  8  51  100.003100  1051.694000  0.000100  0.900000  2.493963
  1  869  264  8  52  100.003100  1051.692000  0.000100  0.900000  2.493963
  1  869  263  8  53  100.003100  1051.691000  0.000100  0.900000  2.493963
  1  869  262  8  54  100.003100  1051.689000  0.000100  0.900000  2.493963
  1  869  261  8  55  100.003100  1051.688000  0.000100  0.900000  2.493963
  1  869  260  8  56  100.003100  1051.686000  0.000100  0.900000  2.493963
  1  869  259  8  57  100.003100  1051.684000  0.000100  0.900000  2.493963
  1  869  258  8  58  100.003100  1051.683000  0.000100  0.900000  2.493963
  1  869  257  8  59  100.003100  1051.681000  0.000100  0.900000  2.493963
  1  869  256  8  60  100.003100  1051.679000  0.000100  0.900000  2.493963
  1  869  255  8  61  100.003100  1051.678000  0.000100  0.900000  2.493963
  1  869  254  8  62  100.003100  1051.676000  0.000100  0.900000  2.493963
  1  869  253  8  63  100.003100  1051.674000  0.000100  0.900000  2.493963
  1  869  252  8  64  100.003100  1051.673000  0.000100  0.900000  2.493963
  1  869  251  8  65  100.003100  1051.671000  0.000100  0.900000  2.493963
  1  869  250  8  66  100.003100  1051.669000  0.000100  0.900000  2.493963
  1  869  249  8  67  100.003100  1051.668000  0.000100  0.900000  2.493963
  1  869  248  8  68  100.003100  1051.666000  0.000100  0.900000  2.493963
  1  869  247  8  69  100.003100  1051.665000  0.000100  0.900000  2.493963
  1  869  246  8  70  100.003100  1051.663000  0.000100  0.900000  2.493963
  1  869  245  8  71  100.003100  1051.661000  0.000100  0.900000  2.493963
  1  869  244  8  72  100.003100  1051.660000  0.000100  0.900000  2.493963
  1  869  243  8  73  100.003100  1051.658000  0.000100  0.900000  2.493963
  1  869  242  8  74  100.003100  1051.656000  0.000100  0.900000  2.493963
  1  869  241  8  75  100.003100  1051.655000  0.000100  0.900000  2.493963
  1  869  240  8  76  100.003100  1051.653000  0.000100  0.900000  2.493963
  1  869  239  8  77  100.003100  1051.651000  0.000100  0.900000  2.493963
  1  869  238  8  78  100.003100  1051.650000  0.000100  0.900000  2.493963
  1  869  237  8  79  100.003100  1051.648000  0.000100  0.900000  2.493963
  1  869  236  8  80  100.003100  1051.646000  0.000100  0.900000  2.493963
  1  869  235  8  81  100.003100  1051.645000  0.000100  0.900000  2.493963
  1  869  234  8  82  100.003100  1051.643000  0.000100  0.900000  2.493963
  1  869  233  8  83  100.003100  1051.642000  0.000100  0.900000  2.493963
  1  869  232  8  84  100.003100  1051.640000  0.000100  0.900000  2.493963
  1  869  231  8  85  100.003100  1051.638000  0.000100  0.900000  2.493963
  1  869  230  8  86  100.003100  1051.637000  0.000100  0.900000  2.493963
  1  869  229  8  87  100.003100  1051.635000  0.000100  0.900000  2.493963
  1  869  228  8  88  100.003100  1051.633000  0.000100  0.900000  2.493963
  1  869  227  8  89  100.003100  1051.632000  0.000100  0.900000  2.493963
  1  869  226  8  90  100.003100  1051.630000  0.000100  0.900000  2.493963
  1  869  225  8  91  100.003100  1051.628000  0.000100  0.900000  2.493963
  1  869  224  8  92  100.003100  1051.627000  0.000100  0.900000  2.493963
  1  869  223  8  93  100.003100  1051.625000  0.000100  0.900000  2.493963
  1  869  222  8  94  100.003100  1051.623000  0.000100  0.900000  2.493963
  1  869  221  8  95  100.003100  1051.622000  0.000100  0.900000  2.493963
  1  869  220  8  96  100.003100  1051.620000  0.000100  0.900000  2.493963
  1  869  219  8  97  100.003100  1051.618000  0.000100  0.900000  2.493963
  1  869  218  8  98  100.003100  1051.617000  0.000100  0.900000  2.493963
  1  869  217  8  99  100.003100  1051.615000  0.000100  0.900000  2.493963
  1  869  216  8  100  100.003100  1051.614000  0.000100  0.900000  2.493963
  1  869  215  8  101  100.003100  1051.612000  0.000100  0.900000  2.493963
  1  869  214  8  102  100.003100  1051.610000  0.000100  0.900000  2.493963
  1  869  213  8  103  100.003100  1051.609000  0.000100  0.900000  2.493963
  1  869  212  8  104  100.003100  1051.607000  0.000100  0.900000  2.493963
  1  869  211  8  105  100.003100  1051.605000  0.000100  0.900000  2.493963
  1  869  210  8  106  100.003100  1051.604000  0.000100  0.900000  2.493963
  1  869  209  8  107  100.003100  1051.602000  0.000100  0.900000  2.493963
  1  869  208  8  108  100.003100  1051.600000  0.000100  0.900000  2.493963
  1  869  207  8  109  100.003100  1051.599000  0.000100  0.900000  2.493963
  1  869  206  8  110  100.003100  1051.597000  0.000100  0.900000  2.493963
  1  869  205  8  111  100.003100  1051.595000  0.000100  0.900000  2.493963
  1  869  204  8  112  100.003100  1051.594000  0.000100  0.900000  2.493963
  1  869  203  8  113  100.003100  1051.592000  0.000100  0.900000  2.493963
  1  869  202  8  114  100.003100  1051.591000  0.000100  0.900000  2.493963
  1  869  201  8  115  100.003100  1051.589000  0.000100  0.900000  2.493963
  1  869  200  8  116  100.003100  1051.587000  0.000100  0.900000  2.493963
  1  869  199  8  117  100.003100  1051.586000  0.000100  0.900000  2.493963
  1  869  198  8  118  100.003100  1051.584000  0.000100  0.900000  2.493963
  1  869  197  8  119  100.003100  1051.582000  0.000100  0.900000  2.493963
  1  869  196  8  120  100.003100  1051.581000  0.000100  0.900000  2.493963
  1  869  195  8  121  100.003100  1051.579000  0.000100  0.900000  2.493963
  1  869  194  8  122  100.003100  1051.577000  0.000100  0.900000  2.493963
  1  869  193  8  123  100.003100  1051.576000  0.000100  0.900000  2.493963
  1  869  192  8  124  100.003100  1051.574000  0.000100  0.900000  2.493963